Circuit: * C:\Users\Admin\OneDrive - University of Cape Town\EEE4022S Report\sim\Draft1.asc

Direct Newton iteration for .op point succeeded.

Date: Tue Aug 22 13:24:47 2023
Total elapsed time: 0.477 seconds.

tnom = 27
temp = 27
method = modified trap
totiter = 139271
traniter = 139265
tranpoints = 24114
accept = 17917
rejected = 6197
matrix size = 8
fillins = 0
solver = Normal
Matrix Compiler1:      16 opcodes  0.1/[0.0]/0.1
Matrix Compiler2: off  [0.1]/0.1/0.1

