Circuit: * E:\OneDrive - University of Cape Town\EEE4022S Report\LAS-Laboratory-Access-System\sim\ZeroComp.asc

R1: both pins shorted together -- ignoring.
Direct Newton iteration failed to find .op point.  (Use ".option noopiter" to skip.)
Starting Gmin stepping
Gmin = 10
Gmin = 1.07374
Gmin = 0.115292
Gmin = 0.0123794
Gmin = 0.00132923
Gmin = 0.000142725
Gmin = 1.5325e-005
Gmin = 1.6455e-006
Gmin = 1.76685e-007
Gmin = 1.89714e-008
Gmin = 2.03704e-009
vernier = 0.5
vernier = 0.666667
Gmin = 7.62709e-010
vernier = 0.888888
vernier = 1
Gmin = 1.07583e-010
Gmin = 1.15517e-011
Gmin = 1.24035e-012
Gmin = 1.33182e-013
Gmin = 0
Gmin stepping succeeded in finding the operating point.

.step n=10
Heightened Def Con from 0.0388497 to 0.0388497
.step n=20

Date: Mon Oct 23 19:12:01 2023
Total elapsed time: 0.308 seconds.

tnom = 27
temp = 27
method = modified trap
totiter = 3844
traniter = 3272
tranpoints = 949
accept = 690
rejected = 260
matrix size = 31
fillins = 11
solver = Normal
Thread vector: 2.3/2.0[2] 0.9/0.8[2] 0.4/0.5[1] 0.1/0.7[1]  2592/500
Matrix Compiler1: 2.32 KB object code size  0.4/0.2/[0.1]
Matrix Compiler2: off  [0.2]/0.3/0.3

