Circuit: * C:\Users\mikha\OneDrive - University of Cape Town\EEE4022S Report\sim\ZeroComp.asc

Direct Newton iteration failed to find .op point.  (Use ".option noopiter" to skip.)
Starting Gmin stepping
Gmin = 10
Gmin = 1.07374
Gmin = 0.115292
Gmin = 0.0123794
Gmin = 0.00132923
Gmin = 0.000142725
Gmin = 1.5325e-005
Gmin = 1.6455e-006
Gmin = 1.76685e-007
Gmin = 1.89714e-008
Gmin = 2.03704e-009
vernier = 0.5
vernier = 0.666667
Gmin = 7.62709e-010
vernier = 0.888888
vernier = 1
Gmin = 1.07583e-010
Gmin = 1.15517e-011
Gmin = 1.24035e-012
Gmin = 1.33182e-013
Gmin = 0
Gmin stepping succeeded in finding the operating point.


Date: Mon Aug 28 12:58:27 2023
Total elapsed time: 1.867 seconds.

tnom = 27
temp = 27
method = modified trap
totiter = 2368
traniter = 1791
tranpoints = 505
accept = 355
rejected = 150
matrix size = 31
fillins = 9
solver = Normal
Thread vector: 26.8/15.8[2] 7.6/6.4[2] 3.5/11.1[1] 0.4/14.6[1]  2592/500
Matrix Compiler1: 2.36 KB object code size  2.7/201.3/[0.5]
Matrix Compiler2: 2.75 KB object code size  1.2/1.7/[0.7]

